Circuit: * C:\Users\bakad\source\repos\esp8266-dsmr\PCB\simulation\DATA_REQ.asc

Direct Newton iteration for .op point succeeded.

Date: Tue Jan 03 11:45:53 2023
Total elapsed time: 0.206 seconds.

tnom = 27
temp = 27
method = modified trap
totiter = 3429
traniter = 3385
tranpoints = 1404
accept = 1312
rejected = 92
matrix size = 19
fillins = 10
solver = Normal
Matrix Compiler1: 1.72 KB object code size  0.3/0.2/[0.1]
Matrix Compiler2: off  [0.2]/0.8/0.6

