Circuit: * C:\Users\bakad\source\repos\esp8266-dsmr\PCB\simulation\UART_invert_2.asc

Direct Newton iteration for .op point succeeded.

Date: Tue Jan 03 11:44:08 2023
Total elapsed time: 0.082 seconds.

tnom = 27
temp = 27
method = modified trap
totiter = 4633
traniter = 4610
tranpoints = 1754
accept = 1568
rejected = 186
matrix size = 15
fillins = 0
solver = Normal
Matrix Compiler1: 640 bytes object code size  0.1/0.1/[0.1]
Matrix Compiler2: 1.05 KB object code size  0.1/0.1/[0.1]

